wh_fortran_model/PDE_Runs/Run_PDEWH_Case_1di.glm
clock {
     timezone CST+6CDT;
     timestamp '2013-09-29 00:00:00';
     stoptime '2013-10-06 00:00:01';
}

#set profiler=1;
#set double_format=%+.12lg
#set randomseed=10;
#set relax_naming_rules=1;
#include "../water_and_setpoint_schedule_v3.glm";

#include "../appliance_schedules.glm";

module tape;
module climate;
module residential {
     implicit_enduses NONE;
};
module powerflow {
     solver_method FBS;
     NR_iteration_limit 100;
};

class player {
     double value;
}
object csv_reader {
     name CSVREADER;
     filename "../MN-Minneapolis.csv";
}

object climate {
     name "Minneapolis MN";
     tmyfile "../MN-Minneapolis.csv";
     reader CSVREADER;
};

object transformer_configuration {
     name substation_config;
     connect_type WYE_WYE;
     install_type PADMOUNT;
     primary_voltage 7200 V;
     secondary_voltage 7200 V;
     power_rating 1500;
     powerA_rating 500;
     powerB_rating 500;
     powerC_rating 500;
     impedance 0.0015+0.00675j;
}

object transformer_configuration {
     name default_transformer_A;
     connect_type SINGLE_PHASE_CENTER_TAPPED;
     install_type PADMOUNT;
     primary_voltage 7200 V;
     secondary_voltage 124 V;
     power_rating 500;
     powerA_rating 500;
     impedance 0.015+0.0675j;
}

object transformer_configuration {
     name default_transformer_B;
     connect_type SINGLE_PHASE_CENTER_TAPPED;
     install_type PADMOUNT;
     primary_voltage 7200 V;
     secondary_voltage 124 V;
     power_rating 500;
     powerB_rating 500;
     impedance 0.015+0.0675j;
}

object transformer_configuration {
     name default_transformer_C;
     connect_type SINGLE_PHASE_CENTER_TAPPED;
     install_type PADMOUNT;
     primary_voltage 7200 V;
     secondary_voltage 124 V;
     power_rating 500;
     powerC_rating 500;
     impedance 0.015+0.0675j;
}

object triplex_line_conductor {
     name Name_1_0_AA_triplex;
     resistance 0.57;
     geometric_mean_radius 0.0111;
}

object triplex_line_configuration {
     name TLCFG;
     conductor_1 Name_1_0_AA_triplex;
     conductor_2 Name_1_0_AA_triplex;
     conductor_N Name_1_0_AA_triplex;
     insulation_thickness 0.08;
     diameter 0.368;
}

object meter {
     bustype SWING;
     name ROOT;
     phases ABCN;
     nominal_voltage 7200;
}

object transformer {
     phases ABCN;
     groupid _Network_Trans;
     name _Transformer1;
     from ROOT;
     to _transformer_meter;
     configuration substation_config;
}

object meter {
     name _transformer_meter;
     phases ABCN;
     nominal_voltage 7200;
}

object transformer {
     name _center_tap_transformer_A;
     phases AS;
     from _transformer_meter;
     to _triplex_node_A;
     configuration default_transformer_A;
}

object transformer {
     name _center_tap_transformer_B;
     phases BS;
     from _transformer_meter;
     to _triplex_node_B;
     configuration default_transformer_B;
}

object transformer {
     name _center_tap_transformer_C;
     phases CS;
     from _transformer_meter;
     to _triplex_node_C;
     configuration default_transformer_C;
}

object triplex_meter {
     name _triplex_node_A;
     phases AS;
     nominal_voltage 124.00;
}

object triplex_meter {
     name _triplex_node_B;
     phases BS;
     nominal_voltage 124.00;
}

object triplex_meter {
     name _triplex_node_C;
     phases CS;
     nominal_voltage 124.00;
}

object triplex_line {
     from _triplex_node_A;
     to _tpm_flatrate_A1;
     groupid _Triplex_Line;
     phases AS;
     length 10;
     configuration TLCFG;
}

object triplex_meter {
     nominal_voltage 124;
     phases AS;
     name _tpm_flatrate_A1;
     groupid _flatrate_meter;
}

object triplex_meter {
     nominal_voltage 124;
     phases AS;
     name _tpm_rt_A1;
     groupid _rt_meter;
     parent _tpm_flatrate_A1;
}

object house {
     name F1_H_1;
     //Residential_2
     parent _tpm_rt_A1;
     schedule_skew -685;
     Rroof 33.69;
     Rwall 17.71;
     Rfloor 17.02;
     Rdoors 5;
     Rwindows 1.81;
     airchange_per_hour 0.80;
     hvac_power_factor 0.97;
     cooling_system_type ELECTRIC;
     heating_system_type GAS;
     fan_type ONE_SPEED;
     hvac_breaker_rating 200;
     total_thermal_mass_per_floor_area 3.01;
     motor_efficiency AVERAGE;
     motor_model BASIC;
     cooling_COP 3.90;
     floor_area 1040;
     number_of_doors 2;
     air_temperature 71.9;
     mass_temperature 71.9;
     cooling_setpoint cooling4*1.035+3.08;
     heating_setpoint heating7*0.985+2.01;
     object ZIPload {
          schedule_skew -685;
          base_power LIGHTS*0.8709;
          power_fraction 0.000000;
          impedance_fraction 1.000000;
          current_fraction 0.000000;
          power_pf 0.000;
          current_pf 0.000;
          impedance_pf 1.000;
          heat_fraction 0.70;
     };
     object ZIPload {
          schedule_skew -685;
          base_power CLOTHESWASHER*0.7763;
          power_fraction 1.000000;
          impedance_fraction 0.000000;
          current_fraction 0.000000;
          power_pf 0.970;
          current_pf 0.970;
          impedance_pf 0.970;
          heat_fraction 0.86;
     };
     object ZIPload {
          schedule_skew -685;
          base_power REFRIGERATOR*1.0019;
          power_fraction 1.000000;
          impedance_fraction 0.000000;
          current_fraction 0.000000;
          power_pf 0.970;
          current_pf 0.970;
          impedance_pf 0.970;
          heat_fraction 0.77;
     };
     object ZIPload {
          schedule_skew -685;
          base_power DRYER*0.9110;
          power_fraction 0.100000;
          impedance_fraction 0.800000;
          current_fraction 0.100000;
          power_pf 0.900;
          current_pf 0.900;
          impedance_pf 1.000;
          heat_fraction 0.80;
     };
     object ZIPload {
          schedule_skew -685;
          base_power FREEZER*1.0590;
          power_fraction 1.000000;
          impedance_fraction 0.000000;
          current_fraction 0.000000;
          power_pf 0.970;
          current_pf 0.970;
          impedance_pf 0.970;
          heat_fraction 0.86;
     };
     object ZIPload {
          schedule_skew -685;
          base_power RANGE*0.6381;
          power_fraction 0.000000;
          impedance_fraction 1.000000;
          current_fraction 0.000000;
          power_pf 0.000;
          current_pf 0.000;
          impedance_pf 1.000;
          heat_fraction 0.94;
     };
     object ZIPload {
          schedule_skew -685;
          base_power MICROWAVE*1.0063;
          power_fraction 1.000000;
          impedance_fraction 0.000000;
          current_fraction 0.000000;
          power_pf 0.970;
          current_pf 0.970;
          impedance_pf 0.970;
          heat_fraction 0.67;
     };
     object waterheater {
          location INSIDE;
          schedule_skew -685;
          demand new_small_2*1.131;
          tank_volume 42.2;
          tank_UA 1.919;
          heating_element_capacity 4100 W;
          tank_setpoint 124.47;
          temperature 125.29;
          thermostat_deadband 1.886;
     };
}

object triplex_line {
     from _triplex_node_A;
     to _tpm_flatrate_A2;
     groupid _Triplex_Line;
     phases AS;
     length 10;
     configuration TLCFG;
}

object triplex_meter {
     nominal_voltage 124;
     phases AS;
     name _tpm_flatrate_A2;
     groupid _flatrate_meter;
}

object triplex_meter {
     nominal_voltage 124;
     phases AS;
     name _tpm_rt_A2;
     groupid _rt_meter;
     parent _tpm_flatrate_A2;
}

object house {
     name F1_H_2;
     //Residential_3
     parent _tpm_rt_A2;
     schedule_skew 2347;
     Rroof 22.83;
     Rwall 10.37;
     Rfloor 11.55;
     Rdoors 3;
     Rwindows 1.04;
     airchange_per_hour 1.14;
     hvac_power_factor 0.97;
     cooling_system_type ELECTRIC;
     heating_system_type GAS;
     fan_type ONE_SPEED;
     hvac_breaker_rating 200;
     total_thermal_mass_per_floor_area 4.56;
     motor_efficiency AVERAGE;
     motor_model BASIC;
     cooling_COP 2.77;
     floor_area 3092;
     number_of_doors 4;
     air_temperature 70.6;
     mass_temperature 70.6;
     cooling_setpoint cooling4*1.027+3.97;
     heating_setpoint heating6*1.001+1.92;
     object ZIPload {
          schedule_skew 2347;
          base_power LIGHTS*2.1914;
          power_fraction 0.600000;
          impedance_fraction 0.400000;
          current_fraction 0.000000;
          power_pf -0.780;
          current_pf 0.420;
          impedance_pf -0.880;
          heat_fraction 0.78;
     };
     object ZIPload {
          schedule_skew 2347;
          base_power CLOTHESWASHER*1.2906;
          power_fraction 1.000000;
          impedance_fraction 0.000000;
          current_fraction 0.000000;
          power_pf 0.970;
          current_pf 0.970;
          impedance_pf 0.970;
          heat_fraction 0.86;
     };
     object ZIPload {
          schedule_skew 2347;
          base_power REFRIGERATOR*0.8346;
          power_fraction 1.000000;
          impedance_fraction 0.000000;
          current_fraction 0.000000;
          power_pf 0.970;
          current_pf 0.970;
          impedance_pf 0.970;
          heat_fraction 0.78;
     };
     object ZIPload {
          schedule_skew 2347;
          base_power DRYER*1.0415;
          power_fraction 0.100000;
          impedance_fraction 0.800000;
          current_fraction 0.100000;
          power_pf 0.900;
          current_pf 0.900;
          impedance_pf 1.000;
          heat_fraction 0.81;
     };
     object ZIPload {
          schedule_skew 2347;
          base_power FREEZER*1.3973;
          power_fraction 1.000000;
          impedance_fraction 0.000000;
          current_fraction 0.000000;
          power_pf 0.970;
          current_pf 0.970;
          impedance_pf 0.970;
          heat_fraction 0.90;
     };
     object ZIPload {
          schedule_skew 2347;
          base_power RANGE*0.7729;
          power_fraction 0.000000;
          impedance_fraction 1.000000;
          current_fraction 0.000000;
          power_pf 0.000;
          current_pf 0.000;
          impedance_pf 1.000;
          heat_fraction 0.87;
     };
     object ZIPload {
          schedule_skew 2347;
          base_power MICROWAVE*0.7195;
          power_fraction 1.000000;
          impedance_fraction 0.000000;
          current_fraction 0.000000;
          power_pf 0.970;
          current_pf 0.970;
          impedance_pf 0.970;
          heat_fraction 0.93;
     };
     object waterheater {
          location INSIDE;
          schedule_skew 2347;
          demand old_large_4*1.018;
          tank_volume 51.2;
          tank_UA 2.157;
          heating_element_capacity 4809 W;
          tank_setpoint 129.10;
          temperature 129.15;
          thermostat_deadband 1.819;
     };
}

object triplex_line {
     from _triplex_node_A;
     to _tpm_flatrate_A3;
     groupid _Triplex_Line;
     phases AS;
     length 10;
     configuration TLCFG;
}

object triplex_meter {
     nominal_voltage 124;
     phases AS;
     name _tpm_flatrate_A3;
     groupid _flatrate_meter;
}

object triplex_meter {
     nominal_voltage 124;
     phases AS;
     name _tpm_rt_A3;
     groupid _rt_meter;
     parent _tpm_flatrate_A3;
}

object house {
     name F1_H_3;
     //Residential_3
     parent _tpm_rt_A3;
     schedule_skew 683;
     Rroof 16.16;
     Rwall 9.24;
     Rfloor 11.16;
     Rdoors 3;
     Rwindows 0.75;
     airchange_per_hour 1.15;
     hvac_power_factor 0.97;
     cooling_system_type ELECTRIC;
     heating_system_type GAS;
     fan_type ONE_SPEED;
     hvac_breaker_rating 200;
     total_thermal_mass_per_floor_area 3.04;
     motor_efficiency AVERAGE;
     motor_model BASIC;
     cooling_COP 3.50;
     floor_area 3893;
     number_of_doors 4;
     air_temperature 70.9;
     mass_temperature 70.9;
     cooling_setpoint cooling6*0.971+5.83;
     heating_setpoint heating5*0.983+2.97;
     object ZIPload {
          schedule_skew 683;
          base_power LIGHTS*1.4594;
          power_fraction 0.600000;
          impedance_fraction 0.400000;
          current_fraction 0.000000;
          power_pf -0.780;
          current_pf 0.420;
          impedance_pf -0.880;
          heat_fraction 0.94;
     };
     object ZIPload {
          schedule_skew 683;
          base_power CLOTHESWASHER*1.2580;
          power_fraction 1.000000;
          impedance_fraction 0.000000;
          current_fraction 0.000000;
          power_pf 0.970;
          current_pf 0.970;
          impedance_pf 0.970;
          heat_fraction 0.80;
     };
     object ZIPload {
          schedule_skew 683;
          base_power REFRIGERATOR*1.1192;
          power_fraction 1.000000;
          impedance_fraction 0.000000;
          current_fraction 0.000000;
          power_pf 0.970;
          current_pf 0.970;
          impedance_pf 0.970;
          heat_fraction 0.76;
     };
     object ZIPload {
          schedule_skew 683;
          base_power DRYER*0.8680;
          power_fraction 0.100000;
          impedance_fraction 0.800000;
          current_fraction 0.100000;
          power_pf 0.900;
          current_pf 0.900;
          impedance_pf 1.000;
          heat_fraction 0.66;
     };
     object ZIPload {
          schedule_skew 683;
          base_power FREEZER*1.2724;
          power_fraction 1.000000;
          impedance_fraction 0.000000;
          current_fraction 0.000000;
          power_pf 0.970;
          current_pf 0.970;
          impedance_pf 0.970;
          heat_fraction 0.79;
     };
     object ZIPload {
          schedule_skew 683;
          base_power RANGE*1.0231;
          power_fraction 0.000000;
          impedance_fraction 1.000000;
          current_fraction 0.000000;
          power_pf 0.000;
          current_pf 0.000;
          impedance_pf 1.000;
          heat_fraction 0.93;
     };
     object ZIPload {
          schedule_skew 683;
          base_power MICROWAVE*1.3642;
          power_fraction 1.000000;
          impedance_fraction 0.000000;
          current_fraction 0.000000;
          power_pf 0.970;
          current_pf 0.970;
          impedance_pf 0.970;
          heat_fraction 0.94;
     };
     object waterheater {
          groupid fwh;
          location INSIDE;
          schedule_skew 683;
          demand old_large_5*1.131;
          tank_volume 40;
          dr_signal 1;
          fortran_sim_time 60;
          operating_mode 3;
          waterheater_model FORTRAN;
          tank_setpoint 126.05;
          thermostat_deadband 4.05;
     };
}

object triplex_line {
     from _triplex_node_A;
     to _tpm_flatrate_A4;
     groupid _Triplex_Line;
     phases AS;
     length 10;
     configuration TLCFG;
}

object triplex_meter {
     nominal_voltage 124;
     phases AS;
     name _tpm_flatrate_A4;
     groupid _flatrate_meter;
}

object triplex_meter {
     nominal_voltage 124;
     phases AS;
     name _tpm_rt_A4;
     groupid _rt_meter;
     parent _tpm_flatrate_A4;
}

object house {
     name F1_H_4;
     //Residential_1
     parent _tpm_rt_A4;
     schedule_skew 1264;
     Rroof 22.61;
     Rwall 9.10;
     Rfloor 10.29;
     Rdoors 3;
     Rwindows 1.11;
     airchange_per_hour 1.09;
     hvac_power_factor 0.97;
     cooling_system_type ELECTRIC;
     heating_system_type GAS;
     fan_type ONE_SPEED;
     hvac_breaker_rating 200;
     total_thermal_mass_per_floor_area 4.23;
     motor_efficiency AVERAGE;
     motor_model BASIC;
     cooling_COP 2.98;
     floor_area 844;
     number_of_doors 1;
     air_temperature 68.2;
     mass_temperature 68.2;
     cooling_setpoint cooling8*0.968+4.25;
     heating_setpoint heating4*0.975+2.07;
     object ZIPload {
          schedule_skew 1264;
          base_power LIGHTS*0.7794;
          power_fraction 0.600000;
          impedance_fraction 0.400000;
          current_fraction 0.000000;
          power_pf -0.780;
          current_pf 0.420;
          impedance_pf -0.880;
          heat_fraction 0.96;
     };
     object ZIPload {
          schedule_skew 1264;
          base_power CLOTHESWASHER*0.9743;
          power_fraction 1.000000;
          impedance_fraction 0.000000;
          current_fraction 0.000000;
          power_pf 0.970;
          current_pf 0.970;
          impedance_pf 0.970;
          heat_fraction 0.66;
     };
     object ZIPload {
          schedule_skew 1264;
          base_power REFRIGERATOR*0.8633;
          power_fraction 1.000000;
          impedance_fraction 0.000000;
          current_fraction 0.000000;
          power_pf 0.970;
          current_pf 0.970;
          impedance_pf 0.970;
          heat_fraction 0.78;
     };
     object ZIPload {
          schedule_skew 1264;
          base_power DRYER*0.5780;
          power_fraction 0.100000;
          impedance_fraction 0.800000;
          current_fraction 0.100000;
          power_pf 0.900;
          current_pf 0.900;
          impedance_pf 1.000;
          heat_fraction 0.86;
     };
     object ZIPload {
          schedule_skew 1264;
          base_power RANGE*0.5336;
          power_fraction 0.000000;
          impedance_fraction 1.000000;
          current_fraction 0.000000;
          power_pf 0.000;
          current_pf 0.000;
          impedance_pf 1.000;
          heat_fraction 0.93;
     };
     object ZIPload {
          schedule_skew 1264;
          base_power MICROWAVE*0.5350;
          power_fraction 1.000000;
          impedance_fraction 0.000000;
          current_fraction 0.000000;
          power_pf 0.970;
          current_pf 0.970;
          impedance_pf 0.970;
          heat_fraction 0.70;
     };
     object waterheater {
          groupid fwh;
          location INSIDE;
          schedule_skew 1264;
          demand old_small_2*1.130;
          tank_volume 40;
          dr_signal 1;
          fortran_sim_time 60;
          operating_mode 3;
          waterheater_model FORTRAN;
          tank_setpoint 126.05;
          thermostat_deadband 4.05;
     };
}

object triplex_line {
     from _triplex_node_A;
     to _tpm_flatrate_A5;
     groupid _Triplex_Line;
     phases AS;
     length 10;
     configuration TLCFG;
}

object triplex_meter {
     nominal_voltage 124;
     phases AS;
     name _tpm_flatrate_A5;
     groupid _flatrate_meter;
}

object triplex_meter {
     nominal_voltage 124;
     phases AS;
     name _tpm_rt_A5;
     groupid _rt_meter;
     parent _tpm_flatrate_A5;
}

object house {
     name F1_H_5;
     //Residential_1
     parent _tpm_rt_A5;
     schedule_skew 384;
     Rroof 15.71;
     Rwall 9.23;
     Rfloor 11.62;
     Rdoors 3;
     Rwindows 1.51;
     airchange_per_hour 0.82;
     hvac_power_factor 0.97;
     cooling_system_type ELECTRIC;
     heating_system_type GAS;
     fan_type ONE_SPEED;
     hvac_breaker_rating 200;
     total_thermal_mass_per_floor_area 3.06;
     motor_efficiency AVERAGE;
     motor_model BASIC;
     cooling_COP 3.69;
     floor_area 1011;
     number_of_doors 2;
     air_temperature 70.7;
     mass_temperature 70.7;
     cooling_setpoint cooling3*0.989+3.30;
     heating_setpoint heating5*1.050+2.38;
     object ZIPload {
          schedule_skew 384;
          base_power LIGHTS*1.6953;
          power_fraction 0.000000;
          impedance_fraction 1.000000;
          current_fraction 0.000000;
          power_pf 0.000;
          current_pf 0.000;
          impedance_pf 1.000;
          heat_fraction 0.73;
     };
     object ZIPload {
          schedule_skew 384;
          base_power CLOTHESWASHER*1.1499;
          power_fraction 1.000000;
          impedance_fraction 0.000000;
          current_fraction 0.000000;
          power_pf 0.970;
          current_pf 0.970;
          impedance_pf 0.970;
          heat_fraction 0.75;
     };
     object ZIPload {
          schedule_skew 384;
          base_power REFRIGERATOR*0.9335;
          power_fraction 1.000000;
          impedance_fraction 0.000000;
          current_fraction 0.000000;
          power_pf 0.970;
          current_pf 0.970;
          impedance_pf 0.970;
          heat_fraction 0.92;
     };
     object ZIPload {
          schedule_skew 384;
          base_power DRYER*0.8129;
          power_fraction 0.100000;
          impedance_fraction 0.800000;
          current_fraction 0.100000;
          power_pf 0.900;
          current_pf 0.900;
          impedance_pf 1.000;
          heat_fraction 0.65;
     };
     object ZIPload {
          schedule_skew 384;
          base_power RANGE*0.5813;
          power_fraction 0.000000;
          impedance_fraction 1.000000;
          current_fraction 0.000000;
          power_pf 0.000;
          current_pf 0.000;
          impedance_pf 1.000;
          heat_fraction 0.81;
     };
     object ZIPload {
          schedule_skew 384;
          base_power MICROWAVE*1.0386;
          power_fraction 1.000000;
          impedance_fraction 0.000000;
          current_fraction 0.000000;
          power_pf 0.970;
          current_pf 0.970;
          impedance_pf 0.970;
          heat_fraction 0.91;
     };
     object waterheater {
          location INSIDE;
          schedule_skew 384;
          demand old_small_4*1.123;
          tank_volume 49.6;
          tank_UA 2.167;
          heating_element_capacity 4991 W;
          tank_setpoint 121.00;
          temperature 121.46;
          thermostat_deadband 2.004;
     };
}

object triplex_line {
     from _triplex_node_A;
     to _tpm_flatrate_A6;
     groupid _Triplex_Line;
     phases AS;
     length 10;
     configuration TLCFG;
}

object triplex_meter {
     nominal_voltage 124;
     phases AS;
     name _tpm_flatrate_A6;
     groupid _flatrate_meter;
}

object triplex_meter {
     nominal_voltage 124;
     phases AS;
     name _tpm_rt_A6;
     groupid _rt_meter;
     parent _tpm_flatrate_A6;
}

object house {
     name F1_H_6;
     //Residential_2
     parent _tpm_rt_A6;
     schedule_skew -580;
     Rroof 27.65;
     Rwall 20.36;
     Rfloor 14.67;
     Rdoors 5;
     Rwindows 2.14;
     airchange_per_hour 1.09;
     hvac_power_factor 0.97;
     cooling_system_type ELECTRIC;
     heating_system_type GAS;
     fan_type ONE_SPEED;
     hvac_breaker_rating 200;
     total_thermal_mass_per_floor_area 4.48;
     motor_efficiency AVERAGE;
     motor_model BASIC;
     cooling_COP 3.40;
     floor_area 924;
     number_of_doors 1;
     air_temperature 68.7;
     mass_temperature 68.7;
     cooling_setpoint cooling3*0.969+4.94;
     heating_setpoint heating2*0.994+0.42;
     object ZIPload {
          schedule_skew -580;
          base_power LIGHTS*1.2565;
          power_fraction 0.600000;
          impedance_fraction 0.400000;
          current_fraction 0.000000;
          power_pf -0.780;
          current_pf 0.420;
          impedance_pf -0.880;
          heat_fraction 0.91;
     };
     object ZIPload {
          schedule_skew -580;
          base_power CLOTHESWASHER*0.4163;
          power_fraction 1.000000;
          impedance_fraction 0.000000;
          current_fraction 0.000000;
          power_pf 0.970;
          current_pf 0.970;
          impedance_pf 0.970;
          heat_fraction 0.70;
     };
     object ZIPload {
          schedule_skew -580;
          base_power REFRIGERATOR*0.5744;
          power_fraction 1.000000;
          impedance_fraction 0.000000;
          current_fraction 0.000000;
          power_pf 0.970;
          current_pf 0.970;
          impedance_pf 0.970;
          heat_fraction 0.72;
     };
     object ZIPload {
          schedule_skew -580;
          base_power DRYER*0.4448;
          power_fraction 0.100000;
          impedance_fraction 0.800000;
          current_fraction 0.100000;
          power_pf 0.900;
          current_pf 0.900;
          impedance_pf 1.000;
          heat_fraction 0.93;
     };
     object ZIPload {
          schedule_skew -580;
          base_power FREEZER*0.9021;
          power_fraction 1.000000;
          impedance_fraction 0.000000;
          current_fraction 0.000000;
          power_pf 0.970;
          current_pf 0.970;
          impedance_pf 0.970;
          heat_fraction 0.65;
     };
     object ZIPload {
          schedule_skew -580;
          base_power RANGE*0.6517;
          power_fraction 0.000000;
          impedance_fraction 1.000000;
          current_fraction 0.000000;
          power_pf 0.000;
          current_pf 0.000;
          impedance_pf 1.000;
          heat_fraction 0.88;
     };
     object ZIPload {
          schedule_skew -580;
          base_power MICROWAVE*0.8931;
          power_fraction 1.000000;
          impedance_fraction 0.000000;
          current_fraction 0.000000;
          power_pf 0.970;
          current_pf 0.970;
          impedance_pf 0.970;
          heat_fraction 0.96;
     };
     object waterheater {
          groupid fwh;
          location INSIDE;
          schedule_skew -580;
          demand new_small_2*0.989;
          tank_volume 40;
          dr_signal 1;
          fortran_sim_time 60;
          operating_mode 3;
          waterheater_model FORTRAN;
          tank_setpoint 126.05;
          thermostat_deadband 4.05;
     };
}

object triplex_line {
     from _triplex_node_A;
     to _tpm_flatrate_A7;
     groupid _Triplex_Line;
     phases AS;
     length 10;
     configuration TLCFG;
}

object triplex_meter {
     nominal_voltage 124;
     phases AS;
     name _tpm_flatrate_A7;
     groupid _flatrate_meter;
}

object triplex_meter {
     nominal_voltage 124;
     phases AS;
     name _tpm_rt_A7;
     groupid _rt_meter;
     parent _tpm_flatrate_A7;
}

object house {
     name F1_H_7;
     //Residential_2
     parent _tpm_rt_A7;
     schedule_skew -3353;
     Rroof 32.14;
     Rwall 18.39;
     Rfloor 16.90;
     Rdoors 5;
     Rwindows 1.60;
     airchange_per_hour 1.17;
     hvac_power_factor 0.97;
     cooling_system_type ELECTRIC;
     heating_system_type GAS;
     fan_type ONE_SPEED;
     hvac_breaker_rating 200;
     total_thermal_mass_per_floor_area 4.10;
     motor_efficiency AVERAGE;
     motor_model BASIC;
     cooling_COP 3.88;
     floor_area 634;
     number_of_doors 1;
     air_temperature 70.7;
     mass_temperature 70.7;
     cooling_setpoint cooling3*1.048+2.46;
     heating_setpoint heating3*0.992+2.98;
     object ZIPload {
          schedule_skew -3353;
          base_power LIGHTS*0.7015;
          power_fraction 0.600000;
          impedance_fraction 0.400000;
          current_fraction 0.000000;
          power_pf -0.780;
          current_pf 0.420;
          impedance_pf -0.880;
          heat_fraction 0.86;
     };
     object ZIPload {
          schedule_skew -3353;
          base_power CLOTHESWASHER*0.3819;
          power_fraction 1.000000;
          impedance_fraction 0.000000;
          current_fraction 0.000000;
          power_pf 0.970;
          current_pf 0.970;
          impedance_pf 0.970;
          heat_fraction 0.69;
     };
     object ZIPload {
          schedule_skew -3353;
          base_power REFRIGERATOR*0.5803;
          power_fraction 1.000000;
          impedance_fraction 0.000000;
          current_fraction 0.000000;
          power_pf 0.970;
          current_pf 0.970;
          impedance_pf 0.970;
          heat_fraction 0.95;
     };
     object ZIPload {
          schedule_skew -3353;
          base_power DRYER*0.4412;
          power_fraction 0.100000;
          impedance_fraction 0.800000;
          current_fraction 0.100000;
          power_pf 0.900;
          current_pf 0.900;
          impedance_pf 1.000;
          heat_fraction 0.95;
     };
     object ZIPload {
          schedule_skew -3353;
          base_power FREEZER*0.3736;
          power_fraction 1.000000;
          impedance_fraction 0.000000;
          current_fraction 0.000000;
          power_pf 0.970;
          current_pf 0.970;
          impedance_pf 0.970;
          heat_fraction 0.79;
     };
     object ZIPload {
          schedule_skew -3353;
          base_power RANGE*0.9169;
          power_fraction 0.000000;
          impedance_fraction 1.000000;
          current_fraction 0.000000;
          power_pf 0.000;
          current_pf 0.000;
          impedance_pf 1.000;
          heat_fraction 0.71;
     };
     object ZIPload {
          schedule_skew -3353;
          base_power MICROWAVE*0.3941;
          power_fraction 1.000000;
          impedance_fraction 0.000000;
          current_fraction 0.000000;
          power_pf 0.970;
          current_pf 0.970;
          impedance_pf 0.970;
          heat_fraction 0.65;
     };
     object waterheater {
          groupid fwh;
          location INSIDE;
          schedule_skew -3353;
          demand new_small_5*1.029;
          tank_volume 40;
          dr_signal 1;
          fortran_sim_time 60;
          operating_mode 3;
          waterheater_model FORTRAN;
          tank_setpoint 126.05;
          thermostat_deadband 4.05;
     };
}

object triplex_line {
     from _triplex_node_A;
     to _tpm_flatrate_A8;
     groupid _Triplex_Line;
     phases AS;
     length 10;
     configuration TLCFG;
}

object triplex_meter {
     nominal_voltage 124;
     phases AS;
     name _tpm_flatrate_A8;
     groupid _flatrate_meter;
}

object triplex_meter {
     nominal_voltage 124;
     phases AS;
     name _tpm_rt_A8;
     groupid _rt_meter;
     parent _tpm_flatrate_A8;
}

object house {
     name F1_H_8;
     //Residential_2
     parent _tpm_rt_A8;
     schedule_skew 2520;
     Rroof 28.55;
     Rwall 16.93;
     Rfloor 16.20;
     Rdoors 5;
     Rwindows 2.20;
     airchange_per_hour 0.91;
     hvac_power_factor 0.97;
     cooling_system_type ELECTRIC;
     heating_system_type GAS;
     fan_type ONE_SPEED;
     hvac_breaker_rating 200;
     total_thermal_mass_per_floor_area 4.27;
     motor_efficiency AVERAGE;
     motor_model BASIC;
     cooling_COP 3.83;
     floor_area 1105;
     number_of_doors 2;
     air_temperature 71.6;
     mass_temperature 71.6;
     cooling_setpoint cooling2*0.977+3.60;
     heating_setpoint heating4*1.001+0.02;
     object ZIPload {
          schedule_skew 2520;
          base_power LIGHTS*0.8134;
          power_fraction 0.600000;
          impedance_fraction 0.400000;
          current_fraction 0.000000;
          power_pf -0.780;
          current_pf 0.420;
          impedance_pf -0.880;
          heat_fraction 0.71;
     };
     object ZIPload {
          schedule_skew 2520;
          base_power CLOTHESWASHER*0.7206;
          power_fraction 1.000000;
          impedance_fraction 0.000000;
          current_fraction 0.000000;
          power_pf 0.970;
          current_pf 0.970;
          impedance_pf 0.970;
          heat_fraction 0.76;
     };
     object ZIPload {
          schedule_skew 2520;
          base_power REFRIGERATOR*0.8565;
          power_fraction 1.000000;
          impedance_fraction 0.000000;
          current_fraction 0.000000;
          power_pf 0.970;
          current_pf 0.970;
          impedance_pf 0.970;
          heat_fraction 0.69;
     };
     object ZIPload {
          schedule_skew 2520;
          base_power DRYER*1.1180;
          power_fraction 0.100000;
          impedance_fraction 0.800000;
          current_fraction 0.100000;
          power_pf 0.900;
          current_pf 0.900;
          impedance_pf 1.000;
          heat_fraction 0.65;
     };
     object ZIPload {
          schedule_skew 2520;
          base_power FREEZER*0.5124;
          power_fraction 1.000000;
          impedance_fraction 0.000000;
          current_fraction 0.000000;
          power_pf 0.970;
          current_pf 0.970;
          impedance_pf 0.970;
          heat_fraction 0.93;
     };
     object ZIPload {
          schedule_skew 2520;
          base_power RANGE*1.0051;
          power_fraction 0.000000;
          impedance_fraction 1.000000;
          current_fraction 0.000000;
          power_pf 0.000;
          current_pf 0.000;
          impedance_pf 1.000;
          heat_fraction 0.65;
     };
     object ZIPload {
          schedule_skew 2520;
          base_power MICROWAVE*0.6596;
          power_fraction 1.000000;
          impedance_fraction 0.000000;
          current_fraction 0.000000;
          power_pf 0.970;
          current_pf 0.970;
          impedance_pf 0.970;
          heat_fraction 0.87;
     };
     object waterheater {
          groupid fwh;
          location INSIDE;
          schedule_skew 2520;
          demand new_small_4*0.821;
          tank_volume 80;
          dr_signal 1;
          fortran_sim_time 60;
          operating_mode 3;
          waterheater_model FORTRAN;
          tank_setpoint 125.006;
          thermostat_deadband 4.05;
     };
}

object triplex_line {
     from _triplex_node_A;
     to _tpm_flatrate_A9;
     groupid _Triplex_Line;
     phases AS;
     length 10;
     configuration TLCFG;
}

object triplex_meter {
     nominal_voltage 124;
     phases AS;
     name _tpm_flatrate_A9;
     groupid _flatrate_meter;
}

object triplex_meter {
     nominal_voltage 124;
     phases AS;
     name _tpm_rt_A9;
     groupid _rt_meter;
     parent _tpm_flatrate_A9;
}

object house {
     name F1_H_9;
     //Residential_2
     parent _tpm_rt_A9;
     schedule_skew 11;
     Rroof 34.71;
     Rwall 21.89;
     Rfloor 17.32;
     Rdoors 5;
     Rwindows 1.41;
     airchange_per_hour 0.95;
     hvac_power_factor 0.97;
     cooling_system_type ELECTRIC;
     heating_system_type GAS;
     fan_type ONE_SPEED;
     hvac_breaker_rating 200;
     total_thermal_mass_per_floor_area 3.64;
     motor_efficiency AVERAGE;
     motor_model BASIC;
     cooling_COP 3.72;
     floor_area 657;
     number_of_doors 1;
     air_temperature 69.6;
     mass_temperature 69.6;
     cooling_setpoint cooling7*1.018+4.91;
     heating_setpoint heating3*1.005+1.01;
     object ZIPload {
          schedule_skew 11;
          base_power LIGHTS*1.5567;
          power_fraction 0.000000;
          impedance_fraction 1.000000;
          current_fraction 0.000000;
          power_pf 0.000;
          current_pf 0.000;
          impedance_pf 1.000;
          heat_fraction 0.92;
     };
     object ZIPload {
          schedule_skew 11;
          base_power CLOTHESWASHER*0.4810;
          power_fraction 1.000000;
          impedance_fraction 0.000000;
          current_fraction 0.000000;
          power_pf 0.970;
          current_pf 0.970;
          impedance_pf 0.970;
          heat_fraction 0.81;
     };
     object ZIPload {
          schedule_skew 11;
          base_power REFRIGERATOR*0.4574;
          power_fraction 1.000000;
          impedance_fraction 0.000000;
          current_fraction 0.000000;
          power_pf 0.970;
          current_pf 0.970;
          impedance_pf 0.970;
          heat_fraction 0.72;
     };
     object ZIPload {
          schedule_skew 11;
          base_power DRYER*0.7875;
          power_fraction 0.100000;
          impedance_fraction 0.800000;
          current_fraction 0.100000;
          power_pf 0.900;
          current_pf 0.900;
          impedance_pf 1.000;
          heat_fraction 0.80;
     };
     object ZIPload {
          schedule_skew 11;
          base_power FREEZER*0.5670;
          power_fraction 1.000000;
          impedance_fraction 0.000000;
          current_fraction 0.000000;
          power_pf 0.970;
          current_pf 0.970;
          impedance_pf 0.970;
          heat_fraction 0.79;
     };
     object ZIPload {
          schedule_skew 11;
          base_power RANGE*0.8791;
          power_fraction 0.000000;
          impedance_fraction 1.000000;
          current_fraction 0.000000;
          power_pf 0.000;
          current_pf 0.000;
          impedance_pf 1.000;
          heat_fraction 0.69;
     };
     object ZIPload {
          schedule_skew 11;
          base_power MICROWAVE*0.8250;
          power_fraction 1.000000;
          impedance_fraction 0.000000;
          current_fraction 0.000000;
          power_pf 0.970;
          current_pf 0.970;
          impedance_pf 0.970;
          heat_fraction 0.70;
     };
     object waterheater {
          groupid fwh;
          location INSIDE;
          schedule_skew 11;
          demand new_small_3*0.997;
          tank_volume 40;
          dr_signal 1;
          fortran_sim_time 60;
          operating_mode 3;
          waterheater_model FORTRAN;
          tank_setpoint 126.05;
          thermostat_deadband 4.05;
     };
}

object triplex_line {
     from _triplex_node_A;
     to _tpm_flatrate_A10;
     groupid _Triplex_Line;
     phases AS;
     length 10;
     configuration TLCFG;
}

object triplex_meter {
     nominal_voltage 124;
     phases AS;
     name _tpm_flatrate_A10;
     groupid _flatrate_meter;
}

object triplex_meter {
     nominal_voltage 124;
     phases AS;
     name _tpm_rt_A10;
     groupid _rt_meter;
     parent _tpm_flatrate_A10;
}

object house {
     name F1_H_10;
     //Residential_1
     parent _tpm_rt_A10;
     schedule_skew 2422;
     Rroof 19.98;
     Rwall 11.04;
     Rfloor 11.25;
     Rdoors 3;
     Rwindows 0.81;
     airchange_per_hour 0.81;
     hvac_power_factor 0.97;
     cooling_system_type ELECTRIC;
     heating_system_type GAS;
     fan_type ONE_SPEED;
     hvac_breaker_rating 200;
     total_thermal_mass_per_floor_area 4.87;
     motor_efficiency AVERAGE;
     motor_model BASIC;
     cooling_COP 3.34;
     floor_area 1476;
     number_of_doors 2;
     air_temperature 70.4;
     mass_temperature 70.4;
     cooling_setpoint cooling6*1.033+3.37;
     heating_setpoint heating6*1.034+3.00;
     object ZIPload {
          schedule_skew 2422;
          base_power LIGHTS*0.9552;
          power_fraction 0.000000;
          impedance_fraction 1.000000;
          current_fraction 0.000000;
          power_pf 0.000;
          current_pf 0.000;
          impedance_pf 1.000;
          heat_fraction 0.95;
     };
     object ZIPload {
          schedule_skew 2422;
          base_power CLOTHESWASHER*0.7108;
          power_fraction 1.000000;
          impedance_fraction 0.000000;
          current_fraction 0.000000;
          power_pf 0.970;
          current_pf 0.970;
          impedance_pf 0.970;
          heat_fraction 0.92;
     };
     object ZIPload {
          schedule_skew 2422;
          base_power REFRIGERATOR*1.1409;
          power_fraction 1.000000;
          impedance_fraction 0.000000;
          current_fraction 0.000000;
          power_pf 0.970;
          current_pf 0.970;
          impedance_pf 0.970;
          heat_fraction 0.73;
     };
     object ZIPload {
          schedule_skew 2422;
          base_power DRYER*1.0214;
          power_fraction 0.100000;
          impedance_fraction 0.800000;
          current_fraction 0.100000;
          power_pf 0.900;
          current_pf 0.900;
          impedance_pf 1.000;
          heat_fraction 0.70;
     };
     object ZIPload {
          schedule_skew 2422;
          base_power RANGE*0.6175;
          power_fraction 0.000000;
          impedance_fraction 1.000000;
          current_fraction 0.000000;
          power_pf 0.000;
          current_pf 0.000;
          impedance_pf 1.000;
          heat_fraction 0.87;
     };
     object ZIPload {
          schedule_skew 2422;
          base_power MICROWAVE*1.1001;
          power_fraction 1.000000;
          impedance_fraction 0.000000;
          current_fraction 0.000000;
          power_pf 0.970;
          current_pf 0.970;
          impedance_pf 0.970;
          heat_fraction 0.82;
     };
     object waterheater {
          location INSIDE;
          schedule_skew 2422;
          demand old_small_5*0.867;
          tank_volume 49.1;
          tank_UA 1.899;
          heating_element_capacity 4894 W;
          tank_setpoint 129.86;
          temperature 130.54;
          thermostat_deadband 2.047;
     };
}

object triplex_line {
     from _triplex_node_A;
     to _tpm_flatrate_A11;
     groupid _Triplex_Line;
     phases AS;
     length 10;
     configuration TLCFG;
}

object triplex_meter {
     nominal_voltage 124;
     phases AS;
     name _tpm_flatrate_A11;
     groupid _flatrate_meter;
}

object triplex_meter {
     nominal_voltage 124;
     phases AS;
     name _tpm_rt_A11;
     groupid _rt_meter;
     parent _tpm_flatrate_A11;
}

object house {
     name F1_H_11;
     //Residential_5
     parent _tpm_rt_A11;
     schedule_skew 1370;
     Rroof 12.22;
     Rwall 6.62;
     Rfloor 4.68;
     Rdoors 3;
     Rwindows 1.75;
     airchange_per_hour 1.32;
     hvac_power_factor 0.97;
     cooling_system_type ELECTRIC;
     heating_system_type GAS;
     fan_type ONE_SPEED;
     hvac_breaker_rating 200;
     total_thermal_mass_per_floor_area 4.41;
     motor_efficiency AVERAGE;
     motor_model BASIC;
     cooling_COP 2.80;
     floor_area 824;
     number_of_doors 1;
     air_temperature 71.6;
     mass_temperature 71.6;
     cooling_setpoint cooling4*1.019+4.33;
     heating_setpoint heating6*1.005+0.80;
     object ZIPload {
          schedule_skew 1370;
          base_power LIGHTS*1.0730;
          power_fraction 0.600000;
          impedance_fraction 0.400000;
          current_fraction 0.000000;
          power_pf -0.780;
          current_pf 0.420;
          impedance_pf -0.880;
          heat_fraction 0.77;
     };
     object ZIPload {
          schedule_skew 1370;
          base_power CLOTHESWASHER*0.8529;
          power_fraction 1.000000;
          impedance_fraction 0.000000;
          current_fraction 0.000000;
          power_pf 0.970;
          current_pf 0.970;
          impedance_pf 0.970;
          heat_fraction 0.81;
     };
     object ZIPload {
          schedule_skew 1370;
          base_power REFRIGERATOR*0.6738;
          power_fraction 1.000000;
          impedance_fraction 0.000000;
          current_fraction 0.000000;
          power_pf 0.970;
          current_pf 0.970;
          impedance_pf 0.970;
          heat_fraction 0.73;
     };
     object ZIPload {
          schedule_skew 1370;
          base_power DRYER*0.8987;
          power_fraction 0.100000;
          impedance_fraction 0.800000;
          current_fraction 0.100000;
          power_pf 0.900;
          current_pf 0.900;
          impedance_pf 1.000;
          heat_fraction 0.94;
     };
     object ZIPload {
          schedule_skew 1370;
          base_power FREEZER*0.9515;
          power_fraction 1.000000;
          impedance_fraction 0.000000;
          current_fraction 0.000000;
          power_pf 0.970;
          current_pf 0.970;
          impedance_pf 0.970;
          heat_fraction 0.77;
     };
     object ZIPload {
          schedule_skew 1370;
          base_power RANGE*0.8611;
          power_fraction 0.000000;
          impedance_fraction 1.000000;
          current_fraction 0.000000;
          power_pf 0.000;
          current_pf 0.000;
          impedance_pf 1.000;
          heat_fraction 0.75;
     };
     object ZIPload {
          schedule_skew 1370;
          base_power MICROWAVE*0.7145;
          power_fraction 1.000000;
          impedance_fraction 0.000000;
          current_fraction 0.000000;
          power_pf 0.970;
          current_pf 0.970;
          impedance_pf 0.970;
          heat_fraction 0.70;
     };
     object waterheater {
          location INSIDE;
          schedule_skew 1370;
          demand old_small_3*1.087;
          tank_volume 38.0;
          tank_UA 1.984;
          heating_element_capacity 3805 W;
          tank_setpoint 121.32;
          temperature 121.68;
          thermostat_deadband 1.988;
     };
}

object triplex_line {
     from _triplex_node_A;
     to _tpm_flatrate_A12;
     groupid _Triplex_Line;
     phases AS;
     length 10;
     configuration TLCFG;
}

object triplex_meter {
     nominal_voltage 124;
     phases AS;
     name _tpm_flatrate_A12;
     groupid _flatrate_meter;
}

object triplex_meter {
     nominal_voltage 124;
     phases AS;
     name _tpm_rt_A12;
     groupid _rt_meter;
     parent _tpm_flatrate_A12;
}

object house {
     name F1_H_12;
     //Residential_1
     parent _tpm_rt_A12;
     schedule_skew -2174;
     Rroof 21.93;
     Rwall 9.39;
     Rfloor 11.82;
     Rdoors 3;
     Rwindows 1.09;
     airchange_per_hour 1.07;
     hvac_power_factor 0.97;
     cooling_system_type ELECTRIC;
     heating_system_type GAS;
     fan_type ONE_SPEED;
     hvac_breaker_rating 200;
     total_thermal_mass_per_floor_area 4.51;
     motor_efficiency AVERAGE;
     motor_model BASIC;
     cooling_COP 3.13;
     floor_area 1062;
     number_of_doors 2;
     air_temperature 70.8;
     mass_temperature 70.8;
     cooling_setpoint cooling8*0.971+2.61;
     heating_setpoint heating8*0.951+0.28;
     object ZIPload {
          schedule_skew -2174;
          base_power LIGHTS*1.1509;
          power_fraction 0.600000;
          impedance_fraction 0.400000;
          current_fraction 0.000000;
          power_pf -0.780;
          current_pf 0.420;
          impedance_pf -0.880;
          heat_fraction 0.90;
     };
     object waterheater {
          groupid fwh;
          location INSIDE;
          schedule_skew -2174;
          demand old_small_3*0.838;
          tank_volume 40;
          dr_signal 1;
          fortran_sim_time 60;
          operating_mode 3;
          waterheater_model FORTRAN;
          tank_setpoint 126.05;
          thermostat_deadband 4.05;
     };
}

object triplex_line {
     from _triplex_node_A;
     to _tpm_flatrate_A13;
     groupid _Triplex_Line;
     phases AS;
     length 10;
     configuration TLCFG;
}

object triplex_meter {
     nominal_voltage 124;
     phases AS;
     name _tpm_flatrate_A13;
     groupid _flatrate_meter;
}

object triplex_meter {
     nominal_voltage 124;
     phases AS;
     name _tpm_rt_A13;
     groupid _rt_meter;
     parent _tpm_flatrate_A13;
}

object house {
     name F1_H_13;
     //Residential_2
     parent _tpm_rt_A13;
     schedule_skew -717;
     Rroof 32.35;
     Rwall 21.49;
     Rfloor 14.91;
     Rdoors 5;
     Rwindows 1.57;
     airchange_per_hour 1.08;
     hvac_power_factor 0.97;
     cooling_system_type ELECTRIC;
     heating_system_type GAS;
     fan_type ONE_SPEED;
     hvac_breaker_rating 200;
     total_thermal_mass_per_floor_area 4.84;
     motor_efficiency AVERAGE;
     motor_model BASIC;
     cooling_COP 3.93;
     floor_area 1527;
     number_of_doors 2;
     air_temperature 69.9;
     mass_temperature 69.9;
     object recorder {
          property cooling_setpoint,air_temperature;
          limit 100000000;
          interval 300;
          file F1_house13_details.csv;
     };
     cooling_setpoint cooling6*1.022+4.69;
     heating_setpoint heating6*1.014+1.27;
     object ZIPload {
          schedule_skew -717;
          base_power LIGHTS*1.7206;
          power_fraction 0.600000;
          impedance_fraction 0.400000;
          current_fraction 0.000000;
          power_pf -0.780;
          current_pf 0.420;
          impedance_pf -0.880;
          heat_fraction 0.67;
     };
     object ZIPload {
          schedule_skew -717;
          base_power CLOTHESWASHER*1.2145;
          power_fraction 1.000000;
          impedance_fraction 0.000000;
          current_fraction 0.000000;
          power_pf 0.970;
          current_pf 0.970;
          impedance_pf 0.970;
          heat_fraction 0.65;
     };
     object ZIPload {
          schedule_skew -717;
          base_power REFRIGERATOR*0.9169;
          power_fraction 1.000000;
          impedance_fraction 0.000000;
          current_fraction 0.000000;
          power_pf 0.970;
          current_pf 0.970;
          impedance_pf 0.970;
          heat_fraction 0.81;
     };
     object ZIPload {
          schedule_skew -717;
          base_power DRYER*0.6933;
          power_fraction 0.100000;
          impedance_fraction 0.800000;
          current_fraction 0.100000;
          power_pf 0.900;
          current_pf 0.900;
          impedance_pf 1.000;
          heat_fraction 0.69;
     };
     object ZIPload {
          schedule_skew -717;
          base_power FREEZER*1.2343;
          power_fraction 1.000000;
          impedance_fraction 0.000000;
          current_fraction 0.000000;
          power_pf 0.970;
          current_pf 0.970;
          impedance_pf 0.970;
          heat_fraction 0.85;
     };
     object ZIPload {
          schedule_skew -717;
          base_power RANGE*0.5582;
          power_fraction 0.000000;
          impedance_fraction 1.000000;
          current_fraction 0.000000;
          power_pf 0.000;
          current_pf 0.000;
          impedance_pf 1.000;
          heat_fraction 0.86;
     };
     object ZIPload {
          schedule_skew -717;
          base_power MICROWAVE*0.9179;
          power_fraction 1.000000;
          impedance_fraction 0.000000;
          current_fraction 0.000000;
          power_pf 0.970;
          current_pf 0.970;
          impedance_pf 0.970;
          heat_fraction 0.82;
     };
     object waterheater {
          location INSIDE;
          schedule_skew -717;
          demand new_small_1*1.183;
          tank_volume 42.4;
          tank_UA 1.974;
          heating_element_capacity 4133 W;
          tank_setpoint 125.86;
          temperature 126.17;
          thermostat_deadband 2.060;
     };
}

object triplex_line {
     from _triplex_node_A;
     to _tpm_flatrate_A14;
     groupid _Triplex_Line;
     phases AS;
     length 10;
     configuration TLCFG;
}

object triplex_meter {
     nominal_voltage 124;
     phases AS;
     name _tpm_flatrate_A14;
     groupid _flatrate_meter;
}

object triplex_meter {
     nominal_voltage 124;
     phases AS;
     name _tpm_rt_A14;
     groupid _rt_meter;
     parent _tpm_flatrate_A14;
}

object house {
     name F1_H_14;
     //Residential_1
     parent _tpm_rt_A14;
     schedule_skew -1490;
     Rroof 19.37;
     Rwall 10.41;
     Rfloor 10.43;
     Rdoors 3;
     Rwindows 1.19;
     airchange_per_hour 0.85;
     hvac_power_factor 0.97;
     cooling_system_type ELECTRIC;
     heating_system_type GAS;
     fan_type ONE_SPEED;
     hvac_breaker_rating 200;
     total_thermal_mass_per_floor_area 4.25;
     motor_efficiency AVERAGE;
     motor_model BASIC;
     cooling_COP 3.15;
     floor_area 1263;
     number_of_doors 2;
     air_temperature 71.4;
     mass_temperature 71.4;
     cooling_setpoint cooling1*0.963+5.54;
     heating_setpoint heating4*1.030+0.88;
     object ZIPload {
          schedule_skew -1490;
          base_power LIGHTS*1.0834;
          power_fraction 0.000000;
          impedance_fraction 1.000000;
          current_fraction 0.000000;
          power_pf 0.000;
          current_pf 0.000;
          impedance_pf 1.000;
          heat_fraction 0.83;
     };
     object waterheater {
          groupid fwh;
          location INSIDE;
          schedule_skew -1490;
          demand old_small_1*0.952;
          tank_volume 40;
          dr_signal 1;
          fortran_sim_time 60;
          operating_mode 3;
          waterheater_model FORTRAN;
          tank_setpoint 126.05;
          thermostat_deadband 4.05;
     };
}

object triplex_line {
     from _triplex_node_A;
     to _tpm_flatrate_A15;
     groupid _Triplex_Line;
     phases AS;
     length 10;
     configuration TLCFG;
}

object triplex_meter {
     nominal_voltage 124;
     phases AS;
     name _tpm_flatrate_A15;
     groupid _flatrate_meter;
}

object triplex_meter {
     nominal_voltage 124;
     phases AS;
     name _tpm_rt_A15;
     groupid _rt_meter;
     parent _tpm_flatrate_A15;
}

object house {
     name F1_H_15;
     //Residential_4
     parent _tpm_rt_A15;
     schedule_skew 1056;
     Rroof 34.85;
     Rwall 21.67;
     Rfloor 12.35;
     Rdoors 5;
     Rwindows 1.96;
     airchange_per_hour 0.85;
     hvac_power_factor 0.97;
     cooling_system_type ELECTRIC;
     heating_system_type GAS;
     fan_type ONE_SPEED;
     hvac_breaker_rating 200;
     total_thermal_mass_per_floor_area 3.49;
     motor_efficiency AVERAGE;
     motor_model BASIC;
     cooling_COP 3.66;
     floor_area 3201;
     number_of_doors 4;
     air_temperature 68.6;
     mass_temperature 68.6;
     cooling_setpoint cooling1*0.997+2.94;
     heating_setpoint heating8*1.036+0.37;
     object ZIPload {
          schedule_skew 1056;
          base_power LIGHTS*3.3584;
          power_fraction 0.000000;
          impedance_fraction 1.000000;
          current_fraction 0.000000;
          power_pf 0.000;
          current_pf 0.000;
          impedance_pf 1.000;
          heat_fraction 0.66;
     };
     object ZIPload {
          schedule_skew 1056;
          base_power CLOTHESWASHER*1.1441;
          power_fraction 1.000000;
          impedance_fraction 0.000000;
          current_fraction 0.000000;
          power_pf 0.970;
          current_pf 0.970;
          impedance_pf 0.970;
          heat_fraction 0.92;
     };
     object ZIPload {
          schedule_skew 1056;
          base_power REFRIGERATOR*0.6493;
          power_fraction 1.000000;
          impedance_fraction 0.000000;
          current_fraction 0.000000;
          power_pf 0.970;
          current_pf 0.970;
          impedance_pf 0.970;
          heat_fraction 0.80;
     };
     object ZIPload {
          schedule_skew 1056;
          base_power DRYER*1.2001;
          power_fraction 0.100000;
          impedance_fraction 0.800000;
          current_fraction 0.100000;
          power_pf 0.900;
          current_pf 0.900;
          impedance_pf 1.000;
          heat_fraction 0.90;
     };
     object ZIPload {
          schedule_skew 1056;
          base_power FREEZER*1.1328;
          power_fraction 1.000000;
          impedance_fraction 0.000000;
          current_fraction 0.000000;
          power_pf 0.970;
          current_pf 0.970;
          impedance_pf 0.970;
          heat_fraction 0.88;
     };
     object ZIPload {
          schedule_skew 1056;
          base_power RANGE*1.7994;
          power_fraction 0.000000;
          impedance_fraction 1.000000;
          current_fraction 0.000000;
          power_pf 0.000;
          current_pf 0.000;
          impedance_pf 1.000;
          heat_fraction 0.68;
     };
     object ZIPload {
          schedule_skew 1056;
          base_power MICROWAVE*1.0753;
          power_fraction 1.000000;
          impedance_fraction 0.000000;
          current_fraction 0.000000;
          power_pf 0.970;
          current_pf 0.970;
          impedance_pf 0.970;
          heat_fraction 0.70;
     };
     object waterheater {
          location INSIDE;
          schedule_skew 1056;
          demand new_large_1*1.129;
          tank_volume 54.2;
          tank_UA 2.051;
          heating_element_capacity 4700 W;
          tank_setpoint 121.11;
          temperature 121.17;
          thermostat_deadband 2.004;
     };
}

object triplex_line {
     from _triplex_node_A;
     to _tpm_flatrate_A16;
     groupid _Triplex_Line;
     phases AS;
     length 10;
     configuration TLCFG;
}

object triplex_meter {
     nominal_voltage 124;
     phases AS;
     name _tpm_flatrate_A16;
     groupid _flatrate_meter;
}

object triplex_meter {
     nominal_voltage 124;
     phases AS;
     name _tpm_rt_A16;
     groupid _rt_meter;
     parent _tpm_flatrate_A16;
}

object house {
     name F1_H_16;
     //Residential_2
     parent _tpm_rt_A16;
     schedule_skew 2598;
     Rroof 30.59;
     Rwall 20.27;
     Rfloor 13.36;
     Rdoors 5;
     Rwindows 2.20;
     airchange_per_hour 1.14;
     hvac_power_factor 0.97;
     cooling_system_type ELECTRIC;
     heating_system_type GAS;
     fan_type ONE_SPEED;
     hvac_breaker_rating 200;
     total_thermal_mass_per_floor_area 3.11;
     motor_efficiency AVERAGE;
     motor_model BASIC;
     cooling_COP 4.07;
     floor_area 1196;
     number_of_doors 2;
     air_temperature 71.2;
     mass_temperature 71.2;
     cooling_setpoint cooling6*0.966+4.06;
     heating_setpoint heating8*1.005+1.97;
     object ZIPload {
          schedule_skew 2598;
          base_power LIGHTS*1.6484;
          power_fraction 0.600000;
          impedance_fraction 0.400000;
          current_fraction 0.000000;
          power_pf -0.780;
          current_pf 0.420;
          impedance_pf -0.880;
          heat_fraction 0.88;
     };
     object ZIPload {
          schedule_skew 2598;
          base_power CLOTHESWASHER*0.5807;
          power_fraction 1.000000;
          impedance_fraction 0.000000;
          current_fraction 0.000000;
          power_pf 0.970;
          current_pf 0.970;
          impedance_pf 0.970;
          heat_fraction 0.68;
     };
     object ZIPload {
          schedule_skew 2598;
          base_power REFRIGERATOR*0.4669;
          power_fraction 1.000000;
          impedance_fraction 0.000000;
          current_fraction 0.000000;
          power_pf 0.970;
          current_pf 0.970;
          impedance_pf 0.970;
          heat_fraction 0.84;
     };
     object ZIPload {
          schedule_skew 2598;
          base_power DRYER*1.2130;
          power_fraction 0.100000;
          impedance_fraction 0.800000;
          current_fraction 0.100000;
          power_pf 0.900;
          current_pf 0.900;
          impedance_pf 1.000;
          heat_fraction 0.90;
     };
     object ZIPload {
          schedule_skew 2598;
          base_power FREEZER*1.2267;
          power_fraction 1.000000;
          impedance_fraction 0.000000;
          current_fraction 0.000000;
          power_pf 0.970;
          current_pf 0.970;
          impedance_pf 0.970;
          heat_fraction 0.87;
     };
     object ZIPload {
          schedule_skew 2598;
          base_power RANGE*0.4985;
          power_fraction 0.000000;
          impedance_fraction 1.000000;
          current_fraction 0.000000;
          power_pf 0.000;
          current_pf 0.000;
          impedance_pf 1.000;
          heat_fraction 0.89;
     };
     object ZIPload {
          schedule_skew 2598;
          base_power MICROWAVE*0.8730;
          power_fraction 1.000000;
          impedance_fraction 0.000000;
          current_fraction 0.000000;
          power_pf 0.970;
          current_pf 0.970;
          impedance_pf 0.970;
          heat_fraction 0.78;
     };
     object waterheater {
          location INSIDE;
          schedule_skew 2598;
          demand new_small_1*0.834;
          tank_volume 43.2;
          tank_UA 2.067;
          heating_element_capacity 4373 W;
          tank_setpoint 122.23;
          temperature 122.31;
          thermostat_deadband 1.902;
     };
}

object triplex_line {
     from _triplex_node_A;
     to _tpm_flatrate_A17;
     groupid _Triplex_Line;
     phases AS;
     length 10;
     configuration TLCFG;
}

object triplex_meter {
     nominal_voltage 124;
     phases AS;
     name _tpm_flatrate_A17;
     groupid _flatrate_meter;
}

object triplex_meter {
     nominal_voltage 124;
     phases AS;
     name _tpm_rt_A17;
     groupid _rt_meter;
     parent _tpm_flatrate_A17;
}

object house {
     name F1_H_17;
     //Residential_4
     parent _tpm_rt_A17;
     schedule_skew 419;
     Rroof 32.15;
     Rwall 16.69;
     Rfloor 13.24;
     Rdoors 5;
     Rwindows 1.44;
     airchange_per_hour 1.17;
     hvac_power_factor 0.97;
     cooling_system_type ELECTRIC;
     heating_system_type GAS;
     fan_type ONE_SPEED;
     hvac_breaker_rating 200;
     total_thermal_mass_per_floor_area 3.71;
     motor_efficiency AVERAGE;
     motor_model BASIC;
     cooling_COP 3.63;
     floor_area 2027;
     number_of_doors 3;
     air_temperature 70.5;
     mass_temperature 70.5;
     cooling_setpoint cooling2*1.050+3.96;
     heating_setpoint heating6*0.965+0.21;
     object ZIPload {
          schedule_skew 419;
          base_power LIGHTS*2.7602;
          power_fraction 0.000000;
          impedance_fraction 1.000000;
          current_fraction 0.000000;
          power_pf 0.000;
          current_pf 0.000;
          impedance_pf 1.000;
          heat_fraction 0.88;
     };
     object ZIPload {
          schedule_skew 419;
          base_power CLOTHESWASHER*0.6260;
          power_fraction 1.000000;
          impedance_fraction 0.000000;
          current_fraction 0.000000;
          power_pf 0.970;
          current_pf 0.970;
...